141

Rh         3.68909        1.96617       -0.20359
Rh         0.16792        2.31428       -0.25647
Cl         5.99510        1.22103       -0.32216
Cl        -2.19851        2.34896       -0.79083
P          4.09069        2.39022        2.06888
P          3.66537        2.02188       -2.53729
P          0.00000        4.64053       -0.00000
P          0.00000        0.00000        0.00000
C          1.93836        2.25605       -0.12368
C          5.53457        3.47054        2.34412
C          6.07218        4.18673        1.27250
H          5.63866        4.05510        0.28740
C          7.16130        5.03345        1.46779
H          7.57452        5.58288        0.62630
C          7.72443        5.16531        2.73659
H          8.57768        5.82067        2.88892
C          7.20041        4.44228        3.81083
H          7.64404        4.53333        4.79835
C          6.11224        3.59467        3.61614
H          5.71354        3.02170        4.44840
C          4.54244        0.90343        3.05469
C          5.84152        0.38518        2.91924
H          6.55779        0.89686        2.28663
C          6.20061       -0.79136        3.57270
H          7.20889       -1.17927        3.45715
C          5.27262       -1.47270        4.36238
H          5.55414       -2.39317        4.86610
C          3.98415       -0.96031        4.50533
H          3.25560       -1.47592        5.12519
C          3.62116        0.22176        3.86042
H          2.61828        0.61193        3.99529
C          2.75220        3.13563        3.05921
C          2.93200        4.27988        3.84466
H          3.87959        4.80605        3.82724
C          1.89101        4.75728        4.63980
H          2.04060        5.65472        5.23392
C          0.66738        4.09004        4.67439
H         -0.13994        4.45884        5.30057
C          0.47665        2.95645        3.88534
H         -0.46881        2.42600        3.89979
C          1.50064        2.49899        3.06082
H          1.32149        1.64286        2.41958
C          2.09878        1.93234       -3.46835
C          1.87905        0.96814       -4.46157
H          2.64719        0.23570       -4.68490
C          0.67895        0.95470       -5.17221
H          0.52153        0.20257       -5.94035
C         -0.31285        1.89940       -4.90081
H         -1.24626        1.88677       -5.45659
C         -0.11211        2.84995       -3.90129
H         -0.88224        3.57398       -3.66031
C          1.08294        2.85801       -3.18407
H          1.24163        3.61715       -2.42764
C          4.39206        3.63477       -3.03071
C          5.67671        3.93419       -2.54451
H          6.20154        3.19513       -1.94322
C          6.26567        5.16245       -2.83026
H          7.26322        5.37753       -2.45615
C          5.57813        6.11662       -3.58551
H          6.03362        7.08048       -3.79457
C          4.30629        5.82230       -4.07260
H          3.76737        6.55333       -4.66929
C          3.71749        4.58418       -3.80722
H          2.73267        4.36367       -4.20459
C          4.70269        0.78789       -3.38059
C          4.69859       -0.51635       -2.87466
H          4.15015       -0.73274       -1.96426
C          5.40892       -1.51939       -3.52777
H          5.40133       -2.52979       -3.12909
C          6.14199       -1.22124       -4.67783
H          6.70665       -2.00150       -5.18086
C          6.15825        0.08199       -5.17698
H          6.73297        0.31736       -6.06849
C          5.43599        1.08659       -4.53361
H          5.44488        2.10013       -4.92344
C         -1.31056        5.13223        1.16971
C         -1.86816        4.17512        2.02019
H         -1.53264        3.14720        1.93967
C         -2.85477        4.53637        2.93528
H         -3.28495        3.78295        3.58953
C         -3.29498        5.85778        3.00204
H         -4.06868        6.13951        3.71108
C         -2.75120        6.81820        2.14572
H         -3.10014        7.84624        2.18667
C         -1.76558        6.45756        1.22977
H         -1.35265        7.20126        0.55427
C          1.47984        5.55973        0.54130
C          2.66355        5.39595       -0.19603
H          2.70877        4.67522       -1.00519
C          3.79113        6.15651        0.10025
H          4.68193        6.04197       -0.50706
C          3.77224        7.04700        1.17296
H          4.65995        7.62354        1.41674
C          2.61621        7.17794        1.94115
H          2.60010        7.85250        2.79290
C          1.47245        6.44650        1.62395
H          0.57887        6.55795        2.22742
C         -0.50086        5.54262       -1.52374
C         -1.84850        5.48558       -1.91764
H         -2.56572        4.96336       -1.29479
C         -2.25716        6.07392       -3.11223
H         -3.30270        6.02045       -3.40281
C         -1.33213        6.71930       -3.93490
H         -1.65306        7.17219       -4.86878
C          0.00509        6.78425       -3.54660
H          0.73307        7.29236       -4.17328
C          0.41884        6.20452       -2.34756
H          1.46084        6.27788       -2.05594
C          1.46772       -1.07483       -0.13958
C          2.58422       -0.81216        0.66915
H          2.55971        0.01336        1.37027
C          3.70890       -1.63411        0.62315
H          4.55954       -1.40797        1.25612
C          3.73704       -2.72003       -0.25030
H          4.61530       -3.35811       -0.29296
C          2.64368       -2.97367       -1.08097
H          2.66645       -3.81027       -1.77387
C          1.51391       -2.15740       -1.02857
H          0.66593       -2.36692       -1.67155
C         -1.21296       -0.83943       -1.06480
C         -2.01141       -1.89255       -0.60676
H         -1.96131       -2.19832        0.43406
C         -2.87402       -2.54409       -1.48780
H         -3.49869       -3.35728       -1.12864
C         -2.93383       -2.15342       -2.82632
H         -3.60775       -2.66241       -3.51001
C         -2.13577       -1.10317       -3.28352
H         -2.18613       -0.78822       -4.32188
C         -1.28436       -0.44098       -2.40388
H         -0.68240        0.39490       -2.74362
C         -0.61520       -0.29574        1.70499
C          0.07473       -1.05479        2.65748
H          0.99753       -1.55791        2.38972
C         -0.41845       -1.16652        3.95915
H          0.13225       -1.75157        4.69081
C         -1.61151       -0.54182        4.31669
H         -1.99278       -0.63148        5.33001
C         -2.31659        0.19690        3.36239
H         -3.25448        0.67774        3.62785
C         -1.82061        0.32960        2.06873
H         -2.35770        0.91723        1.32750
